16
Atoms
O 1.216983 -1.028807 -0.000385
O 1.438638 1.223154 0.000555
C 1.919913 -0.033917 0.000030
C 3.468340 -0.067783 0.000046
H 3.813021 -1.097928 -0.000852
H 3.837743 0.449843 0.883479
H 3.837818 0.451445 -0.882411
H 0.439177 1.249637 0.000576
O -1.216984 1.028810 0.000450
O -1.438639 -1.223154 -0.000502
C -1.919913 0.033919 -0.000001
C -3.468339 0.067784 -0.000093
H -3.813021 1.097929 0.000789
H -3.837699 -0.449841 -0.883546
H -3.837862 -0.451446 0.882345
H -0.439179 -1.249644 -0.000474
