3
Atoms
C -1.089683 -0.216200 -0.000528
N 0.055967 0.010994 0.000055
H 1.033716 0.205207 0.000472
3
Atoms
C -1.035522 -0.173335 -0.008704
N 0.057883 -0.058374 0.017867
H 0.977639 0.231709 -0.009164
3
Atoms
C -0.927150 -0.087610 -0.025050
N 0.061620 -0.197120 0.053490
H 0.568900 0.351920 -0.060220
3
Atoms
C -0.814931 -0.004039 -0.040652
N 0.056261 -0.336171 0.088722
H 0.758669 0.340210 -0.048071
3
Atoms
C -0.698770 0.077280 -0.055480
N 0.041650 -0.475510 0.123560
H 0.210820 0.225920 -0.066920
3
Atoms
C -0.567860 0.113680 -0.058080
N -0.023920 -0.595480 0.150840
H 0.231570 0.223540 0.046530
3
Atoms
C -0.422400 0.104910 -0.048400
N -0.140390 -0.695810 0.170500
H 0.351440 0.309880 -0.061150
3
Atoms
C -0.352100 0.096940 -0.042760
N -0.198630 -0.742610 0.179470
H 0.344350 0.429570 -0.092080
3
Atoms
C -0.281800 0.088900 -0.037120
N -0.256880 -0.789380 0.188440
H 0.364490 0.603110 -0.135370
3
Atoms
C -0.146230 0.065400 -0.024180
N -0.372080 -0.876670 0.204830
H 0.348080 0.611140 -0.138260
3
Atoms
C -0.039915 0.038707 -0.011926
N -0.464469 -0.942833 0.217005
H 0.504383 0.904126 -0.205079
3
Atoms
C 0.013242 0.025360 -0.005799
N -0.510663 -0.975914 0.223090
H 0.497421 0.950554 -0.217291
